          12
Lattice = "10.0 0.0 0.0 0.0 10.0 0.0 0.0 0.0 10.0" 
 O    -1.08900     0.84000     0.08700
 H    -0.37900     0.62000     0.67800
 H    -0.80200     1.51900    -0.51300
 O     6.79100     5.32900     8.73700
 H     6.91100     5.98900     7.99700
 H     7.25100     5.66900     9.56700
 O     1.88100     3.40900     0.41700
 H     0.96100     3.12900     0.12700
 H     2.19100     4.17900    -0.14300
 O     1.85100     1.61900     3.26700
 H     1.68100     2.44900     2.72700
 H     2.75100     1.24900     3.04700
